[General]
network = PI
sim-time-limit = 10s
**.numNodes = 7
