[General]
network = PIF
sim-time-limit = 30s
**.numNodes = 5
