[General]
network = propagation_with_feedback.PIF
sim-time-limit = 30s
**.numNodes = 5