[General]
network = propagation_without_feedback.PI
sim-time-limit = 10s
**.numNodes = 7